Version 4
SHEET 1 880 680
WIRE 240 -16 96 -16
WIRE 96 0 96 -16
WIRE 240 16 240 -16
WIRE 144 48 96 48
WIRE 48 80 -16 80
WIRE -16 112 -16 80
WIRE 96 112 96 96
WIRE 144 112 144 48
WIRE 144 112 96 112
WIRE 240 112 240 96
WIRE 240 112 144 112
WIRE -16 128 -16 112
WIRE 96 128 96 112
WIRE -16 240 -16 192
FLAG 96 128 0
FLAG -16 240 0
FLAG 96 -16 D
SYMBOL nmos4 48 0 R0
SYMATTR InstName M1
SYMATTR Value2 l=180nm w=270nm
SYMBOL voltage 240 0 R0
WINDOW 123 0 0 Left 0
WINDOW 39 0 0 Left 0
SYMATTR InstName Vds
SYMATTR Value 1.8
SYMBOL voltage -16 96 R0
WINDOW 123 0 0 Left 0
WINDOW 39 0 0 Left 0
SYMATTR InstName Vgs
SYMATTR Value 1.8
TEXT -48 264 Left 2 !.dc vgs 0 1.8 0.1
